
**** 01/11/01 15:58:00 ********* PSpice 9.1 (Mar 1999) ******** ID# 0 ********

 ** circuit file for profile: 4148 


 ****     CIRCUIT DESCRIPTION


******************************************************************************




** WARNING: THIS AUTOMATICALLY GENERATED FILE MAY BE OVERWRITTEN BY SUBSEQUENT PROFILES

*Libraries: 
* Local Libraries :
* From [PSPICE NETLIST] section of pspice91.ini file:
.lib "nom.lib" 

*Analysis directives: 
.DC LIN TEMP -10 50 1 
.PROBE 
.INC "diode-SCHEMATIC1.net" 


**** INCLUDING diode-SCHEMATIC1.net ****
* source DIODE
R_R8         DO N01097  100k  
R_R9         N01078 OUT  100k  
R_R3         DO N00329  22k  
V_V2         N00329 0 55.2Vdc
R_R6         N00900 D+  10k  
R_R7         N01078 D+  100k  
D_D5         N004090 N004091 D1N4148 
D_D1         D+ N004090 D1N4148 
R_R10         0 N004091  5.1k  
X_U1A         N01097 N01078 N00900 0 OUT LM358
V_V1         N00900 0 5Vdc
R_R4         0 DO  1k  

**** RESUMING diode-schematic1-4148.sim.cir ****
.INC "diode-SCHEMATIC1.als"



**** INCLUDING diode-SCHEMATIC1.als ****
.ALIASES
R_R8            R8(1=DO 2=N01097 )
R_R9            R9(1=N01078 2=OUT )
R_R3            R3(1=DO 2=N00329 )
V_V2            V2(+=N00329 -=0 )
R_R6            R6(1=N00900 2=D+ )
R_R7            R7(1=N01078 2=D+ )
D_D5            D5(1=N004090 2=N004091 )
D_D1            D1(1=D+ 2=N004090 )
R_R10           R10(1=0 2=N004091 )
X_U1A           U1A(+=N01097 -=N01078 V+=N00900 V-=0 OUT=OUT )
V_V1            V1(+=N00900 -=0 )
R_R4            R4(1=0 2=DO )
_    _(do=DO)
_    _(out=OUT)
_    _(D+=D+)
.ENDALIASES

**** RESUMING diode-schematic1-4148.sim.cir ****
.END

**** 01/11/01 15:58:00 ********* PSpice 9.1 (Mar 1999) ******** ID# 0 ********

 ** circuit file for profile: 4148 


 ****     Diode MODEL PARAMETERS


******************************************************************************




               D1N4148         X_U1A.x_lm358.dx 
          IS    2.682000E-09  800.000000E-18 
           N    1.836                        
         ISR    1.565000E-09                 
         IKF     .04417                      
          BV  100                            
         IBV  100.000000E-06                 
          RS     .5664          1            
          TT   11.540000E-09                 
         CJO    4.000000E-12                 
          VJ     .5                          
           M     .3333                       


               X_U1A.x_lm358.dy 
          IS  800.000000E-18 
          RS    1.000000E-03 
         CJO   10.000000E-12 


**** 01/11/01 15:58:00 ********* PSpice 9.1 (Mar 1999) ******** ID# 0 ********

 ** circuit file for profile: 4148 


 ****     BJT MODEL PARAMETERS


******************************************************************************




               X_U1A.x_lm358.qx 
               PNP             
          IS  800.000000E-18 
          BF  166.7          
          NF    1            
          BR    1            
          NR    1            
          CN    2.2          
           D     .52         


**** 01/11/01 15:58:00 ********* PSpice 9.1 (Mar 1999) ******** ID# 0 ********

 ** circuit file for profile: 4148 


 ****     Current Controlled Switch MODEL PARAMETERS


******************************************************************************




               X_U1A.x_lm358.sw2 
         RON    1            
        ROFF   10.000000E+06 
         ION    0            
        IOFF   -1.000000E-06 


               X_U1A.x_lm358.sw1 
         RON    1            
        ROFF   10.000000E+06 
         ION   -1.000000E-06 
        IOFF    0            


               X_U1A.x_lm358.sw3 
         RON    1            
        ROFF   10.000000E+06 
         ION   -1.000000E-06 
        IOFF    0            


               X_U1A.x_lm358.sw4 
         RON    1            
        ROFF   10.000000E+06 
         ION    0            
        IOFF   -1.000000E-06 



          JOB CONCLUDED

          TOTAL JOB TIME             .63
