
**** 01/19/01 01:22:09 ********* PSpice 9.1 (Mar 1999) ******** ID# 0 ********

 ** circuit file for profile: 123 


 ****     CIRCUIT DESCRIPTION


******************************************************************************




** WARNING: THIS AUTOMATICALLY GENERATED FILE MAY BE OVERWRITTEN BY SUBSEQUENT PROFILES

*Libraries: 
* Local Libraries :
* From [PSPICE NETLIST] section of pspice91.ini file:
.lib "nom.lib" 

*Analysis directives: 
.TRAN  0 200u  0 
.OPTIONS NOPRBMSG
.OPTIONS DEFAD= 0.1
.OPTIONS DEFAS= 0.1
.OPTIONS DEFL= 1000.00u
.OPTIONS DEFW= 1000.00u
.OPTIONS DIGMNTYMX= 1
.OPTIONS ITL1= 100
.OPTIONS ITL2= 40
.OPTIONS ITL4= 500
.PROBE 
.INC "charger4820-SCHEMATIC1.net" 


**** INCLUDING charger4820-SCHEMATIC1.net ****
* source CHARGER4820
V_V1         +15V 0 12Vdc
C_C25         0 N036951  10n  
R_R35         N14714 VR  1k  
L_L8         N25143 0  10uH  
C_C1         AC1 AC2  1n  
L_L5         0 N25137  10uH  
R_R41         0 N00731  0.005  
L_L2         N00085 N00304  20uH  
C_C17         +15V 0  220uF  
R_R26         0 N021311 {10k*0.5+.001}
R_R27         0 N02449 {1.5k*0.5+.001}
C_C23         DCOUT 0  100oF  
L_L4         N00345 0  20uH  
D_D12         N02465 N01498 D1N4148 
X_U1A         N014830 N01523 +15V 0 N01504 LM358
D_D7         N01504 N01498 D1N4148 
R_R11         N014830 N00731  1k  
R_R14         N01504 N01523  1k  
D_D5         0 AC1 D1N5404 
R_R15         0 N01523 {1k*0.5+.001}
M_M1         N00081 N00304 N00085 N00085 IRFP460
C_C8         N01504 N01523  1n  
M_M2         N00085 N00345 0 0 IRFP460
R_R39         N01401 N01498  10k  
X_D15         N25137 N00713 D120NQ045 
R_R5         N00713 0  1k  
C_C6         N00081 N00073  2000uF  
R_R16         N036951 N00345  100  
C_C21         VR 0  10uF  
C_C3         N00085 N25131  10u/100V  
C_C26         0 +15V  100n  
X_U4         N01401 N14714 N1624810 N14590 N1624811 N14733 0 N00451 0 +15V
+  N00442 +15V VR SG1525 
+ PARAMS: PERIOD=20us DEADTIME=1us
R_R2         N00073 N00081  100k  
R_R9         0 N00073  100k  
R_R34         0 N01401  1000k  
D_D2         AC2 N06568 D1N5404 
C_C15         N00073 0  2000uF  
Q_Q3         0 N00451 N00419 Q2SA1020 
D_D1         AC1 N06568 D1N5404 
R_R7         0 AC1  1000k  
Q_Q4         0 N00442 N00416 Q2SA1020 
V_V2         AC2 AC1  
+SIN 0 310 50 0 0 0
Q_Q1         +15V N00451 N00419 Q2SC4760 
Q_Q2         +15V N00442 N00416 Q2SC4760 
D_D8         N00419 +15V D1N4376 
D_D10         0 N00419 D1N4376 
Kn_K2         L_L5 L_L6 
+ L_L8    1 
D_D11         0 N00416 D1N4376 
D_D9         N00416 +15V D1N4376 
Kn_K1         L_L2 L_L3 
+ L_L4    0.8 
R_R3         N00073 N25131  1k  
L_L6         N25131 N00073  10uH  
C_C24         N00085 N035621  10n  
D_D6         0 AC2 D1N5404 
R_R12         N035621 N00304  100  
R_R40         VR N1624810  1k  
R_R8         0 AC2  1000k  
X_U1B         N021270 N02459 +15V 0 N02465 LM358
D_D13         N02456 N021291 D1N4148 
D_D14         N021291 N021311 D1N4148 
C_C22         N1624811 0  1n  
R_R20         N02459 N02456  100k  
R_R19         N021270 N02449  100k  
L_L3         N00416 N00419  20uH  
R_R25         N02465 N02459  100k  
X_D4         N25143 N00713 D120NQ045 
R_R42         N25137 0  1k  
R_R30         0 VR  1k  
C_C19         0 N14590  1n  
L_L7         N00713 DCOUT  10uH  
R_R43         N25143 0  1k  
R_R1         N06568 N00081  0.05  
R_R37         0 N14454  1k  
R_R36         N14590 N144490  1k  
R_R21         N02456 VR  10k  
R_R38         N14733 N01401  1k  
R_R33         0 N14714  1k  
R_R4         N00731 DCOUT  10  
R_R17         N02449 DCOUT  22k  
** Floating/unmodeled pin fixups **
R__UC0001   N14454  0   {1/GMIN}
R__UC0002   N144490  0   {1/GMIN}

**** RESUMING charger4820-schematic1-123.sim.cir ****
.INC "charger4820-SCHEMATIC1.als"



**** INCLUDING charger4820-SCHEMATIC1.als ****
.ALIASES
V_V1            V1(+=+15V -=0 )
C_C25           C25(1=0 2=N036951 )
R_R35           R35(1=N14714 2=VR )
L_L8            L8(1=N25143 2=0 )
C_C1            C1(1=AC1 2=AC2 )
L_L5            L5(1=0 2=N25137 )
R_R41           R41(1=0 2=N00731 )
L_L2            L2(1=N00085 2=N00304 )
C_C17           C17(+=+15V -=0 )
R_R26           R26(1=0 2=N021311 )
R_R27           R27(1=0 2=N02449 )
C_C23           C23(+=DCOUT -=0 )
L_L4            L4(1=N00345 2=0 )
D_D12           D12(1=N02465 2=N01498 )
X_U1A           U1A(+=N014830 -=N01523 V+=+15V V-=0 OUT=N01504 )
D_D7            D7(1=N01504 2=N01498 )
R_R11           R11(1=N014830 2=N00731 )
R_R14           R14(1=N01504 2=N01523 )
D_D5            D5(1=0 2=AC1 )
R_R15           R15(1=0 2=N01523 )
M_M1            M1(d=N00081 g=N00304 s=N00085 s=N00085 )
C_C8            C8(1=N01504 2=N01523 )
M_M2            M2(d=N00085 g=N00345 s=0 s=0 )
R_R39           R39(1=N01401 2=N01498 )
X_D15           D15(A=N25137 K=N00713 )
R_R5            R5(1=N00713 2=0 )
C_C6            C6(+=N00081 -=N00073 )
R_R16           R16(1=N036951 2=N00345 )
C_C21           C21(+=VR -=0 )
C_C3            C3(1=N00085 2=N25131 )
C_C26           C26(1=0 2=+15V )
X_U4            U4(ERR-=N01401 ERR+=N14714 OSC=N1624810 CT=N14590
+  START=N1624811 COMP=N14733 SHUT=0 OUTA=N00451 GND=0 C=+15V OUTB=N00442
+  VIN=+15V VREF=VR )
R_R2            R2(1=N00073 2=N00081 )
R_R9            R9(1=0 2=N00073 )
R_R34           R34(1=0 2=N01401 )
D_D2            D2(1=AC2 2=N06568 )
C_C15           C15(+=N00073 -=0 )
Q_Q3            Q3(C=0 B=N00451 E=N00419 )
D_D1            D1(1=AC1 2=N06568 )
R_R7            R7(1=0 2=AC1 )
Q_Q4            Q4(C=0 B=N00442 E=N00416 )
V_V2            V2(+=AC2 -=AC1 )
Q_Q1            Q1(C=+15V B=N00451 E=N00419 )
Q_Q2            Q2(C=+15V B=N00442 E=N00416 )
D_D8            D8(A=N00419 K=+15V )
D_D10           D10(A=0 K=N00419 )
Kn_K2            K2()
D_D11           D11(A=0 K=N00416 )
D_D9            D9(A=N00416 K=+15V )
Kn_K1            K1()
R_R3            R3(1=N00073 2=N25131 )
L_L6            L6(1=N25131 2=N00073 )
C_C24           C24(1=N00085 2=N035621 )
D_D6            D6(1=0 2=AC2 )
R_R12           R12(1=N035621 2=N00304 )
R_R40           R40(1=VR 2=N1624810 )
R_R8            R8(1=0 2=AC2 )
X_U1B           U1B(+=N021270 -=N02459 V+=+15V V-=0 OUT=N02465 )
D_D13           D13(1=N02456 2=N021291 )
D_D14           D14(1=N021291 2=N021311 )
C_C22           C22(+=N1624811 -=0 )
R_R20           R20(1=N02459 2=N02456 )
R_R19           R19(1=N021270 2=N02449 )
L_L3            L3(1=N00416 2=N00419 )
R_R25           R25(1=N02465 2=N02459 )
X_D4            D4(A=N25143 K=N00713 )
R_R42           R42(1=N25137 2=0 )
R_R30           R30(1=0 2=VR )
C_C19           C19(1=0 2=N14590 )
L_L7            L7(1=N00713 2=DCOUT )
R_R43           R43(1=N25143 2=0 )
R_R1            R1(1=N06568 2=N00081 )
R_R37           R37(1=0 2=N14454 )
R_R36           R36(1=N14590 2=N144490 )
R_R21           R21(1=N02456 2=VR )
R_R38           R38(1=N14733 2=N01401 )
R_R33           R33(1=0 2=N14714 )
R_R4            R4(1=N00731 2=DCOUT )
R_R17           R17(1=N02449 2=DCOUT )
_    _(AC1=AC1)
_    _(AC2=AC2)
_    _(VR=VR)
_    _(VC=+15V)
_    _(VCC=+15V)
_    _(+15V=+15V)
_    _(DCOUT=DCOUT)
_    _(+15V=+15V)
_    _(VR=VR)
.ENDALIASES

**** RESUMING charger4820-schematic1-123.sim.cir ****
.END


**** Generated AtoD and DtoA Interfaces ****

*
* Analog/Digital interface for node 0
*
* Moving X_U4.uinvds1:IN1 from analog node 0 to new digital node 0$AtoD
X$0_AtoD1
+ 0
+ 0$AtoD
+ X_U4.DPWR
+ X_U4.DGND
+ AtoD_STD
+       PARAMS: CAPACITANCE=   0     
*
* Analog/Digital interface for node N1624810
*
* Moving X_U4.u99:OUT1 from analog node N1624810 to new digital node N1624810$DtoA
X$N1624810_DtoA1
+ N1624810$DtoA
+ N1624810
+ X_U4.DPWR
+ X_U4.DGND
+ DtoA_STD
+       PARAMS: DRVH=  96.4   DRVL= 104    CAPACITANCE=   0     
*
* Analog/Digital interface for node X_U4.7114
*
* Moving X_U4.u4:OUT1 from analog node X_U4.7114 to new digital node X_U4.7114$DtoA
X$X_U4.7114_DtoA1
+ X_U4.7114$DtoA
+ X_U4.7114
+ X_U4.DPWR
+ X_U4.DGND
+ dtoa_s_o1
+       PARAMS: DRVH=   1.0000E+06 DRVL=  60.6   CAPACITANCE=   0     
*
* Analog/Digital interface for node X_U4.7113
*
* Moving X_U4.u3:OUT1 from analog node X_U4.7113 to new digital node X_U4.7113$DtoA
X$X_U4.7113_DtoA1
+ X_U4.7113$DtoA
+ X_U4.7113
+ X_U4.DPWR
+ X_U4.DGND
+ dtoa_s_o1
+       PARAMS: DRVH=   1.0000E+06 DRVL=  60.6   CAPACITANCE=   0     
*
* Analog/Digital interface for node X_U4.7111
*
* Moving X_U4.u1:OUT1 from analog node X_U4.7111 to new digital node X_U4.7111$DtoA
X$X_U4.7111_DtoA1
+ X_U4.7111$DtoA
+ X_U4.7111
+ X_U4.DPWR
+ X_U4.DGND
+ dtoa_s_o1
+       PARAMS: DRVH=   1.0000E+06 DRVL=  60.6   CAPACITANCE=   0     
*
* Analog/Digital interface for node X_U4.7112
*
* Moving X_U4.u2:OUT1 from analog node X_U4.7112 to new digital node X_U4.7112$DtoA
X$X_U4.7112_DtoA1
+ X_U4.7112$DtoA
+ X_U4.7112
+ X_U4.DPWR
+ X_U4.DGND
+ dtoa_s_o1
+       PARAMS: DRVH=   1.0000E+06 DRVL=  60.6   CAPACITANCE=   0     
*
* Analog/Digital interface for node X_U4.x16.3
*
* Moving X_U4.x16.u1:OUT1 from analog node X_U4.x16.3 to new digital node X_U4.x16.3$DtoA
X$X_U4.x16.3_DtoA1
+ X_U4.x16.3$DtoA
+ X_U4.x16.3
+ X_U4.DPWR
+ X_U4.DGND
+ DtoA_STD
+       PARAMS: DRVH=  96.4   DRVL= 104    CAPACITANCE=   0     
*
* Analog/Digital interface power supply subcircuits
*

X$DIGIFPWR 0 DIGIFPWR

**** 01/19/01 01:22:09 ********* PSpice 9.1 (Mar 1999) ******** ID# 0 ********

 ** circuit file for profile: 123 


 ****     Diode MODEL PARAMETERS


******************************************************************************




               D1N4148         D1N5404         D1N4376         X_D15.DFWD      
          IS    2.682000E-09   11.500000E-15  857.890000E-12   11.137170E-06 
           N    1.836                           1.88811          .520057     
         ISR    1.565000E-09   47.190000E-06   40.817000E-09  225.763900E-12 
          NR                                    6.32069                      
         IKF     .04417         3.87                          184.112000E-06 
          BV  100                              20.375          44.905        
         IBV  100.000000E-06                   10               2.586700E-03 
          RS     .5664          8.254000E-03    2.53577         1.020740E-03 
          TT   11.540000E-09                  662.000000E-12                 
         CJO    4.000000E-12  130.400000E-12    1.000000E-12   11.509000E-09 
          VJ     .5              .75             .75             .75         
           M     .3333           .3758           .3333           .49488      
          EG                                                     .69         
         XTI                                                    2            


               X_D15.DLEAK     X_D4.DFWD       X_D4.DLEAK      
          IS  186.070200E-12   11.137170E-06  186.070200E-12 
           N   99.2231           .520057       99.2231       
         ISR                  225.763900E-12                 
         IKF                  184.112000E-06                 
          BV  100.000000E+03   44.905         100.000000E+03 
         IBV    1.000000E-03    2.586700E-03    1.000000E-03 
          RS     .1             1.020740E-03     .1          
         CJO                   11.509000E-09                 
          VJ                     .75                         
           M                     .49488                      
          EG     .69             .69             .69         
         XTI    2               2               2            


               X_U1A.x_lm358.dx 
          IS  800.000000E-18 
          RS    1            


               X_U1A.x_lm358.dy                X_U4.x4.dx      
          IS  800.000000E-18                  100.000000E-21 
          RS    1.000000E-03                    1            
         CJO   10.000000E-12                                 


               X_U1B.x_lm358.dx 
          IS  800.000000E-18 
          RS    1            


               X_U1B.x_lm358.dy                X_U4.x1.x1.dx   D74CLMP         
          IS  800.000000E-18                  100.000000E-15    1.000000E-15 
          BV  100                            
         IBV  100.000000E-15                 
          RS    1.000000E-03                   16               2            
          TT   12.000000E-09                 
         CJO   10.000000E-12                    2.000000E-12    2.000000E-12 


               D74             
          IS  100.000000E-18 
          RS   25            
         CJO    2.000000E-12 


**** 01/19/01 01:22:09 ********* PSpice 9.1 (Mar 1999) ******** ID# 0 ********

 ** circuit file for profile: 123 


 ****     BJT MODEL PARAMETERS


******************************************************************************




               Q2SA1020        Q2SC4760        X_U4.q_pwm1     
               PNP             NPN             NPN             
          IS   22.874000E-15  110.500000E-15    1.340000E-15 
          BF  157.34           15.456          65.62         
          NF    1               1               1            
         VAF  100             100                            
         IKF    6.154          15.436            .5385       
         ISE  211.080000E-15  110.500000E-15                 
          NE    1.4906          2                            
          BR  500               4.0625          1            
          NR    1               1               1            
         VAR  100             100                            
         IKR   20                .01                         
         ISC   37.417000E-15  110.500000E-15                 
          NC    1.1098                                       
          NK     .83537         4.7955                       
          RB    1                              10            
          RC     .19037                         9            
         CJE   64.281000E-12    2.000000E-12    2.010000E-12 
         MJE     .33333                          .377        
         CJC   97.165000E-12  704.440000E-12    1.393000E-12 
         MJC     .33333          .33333          .3416       
          TF  395.800000E-12   47.221000E-09  408.800000E-12 
         XTF   10              10                            
         VTF   10              10                            
         ITF    1               1                            
          TR  168.000000E-09                                 
         XTB                    1.5                          
          CN    2.2             2.42            2.42         
           D     .52             .87             .87         


               X_U1A.x_lm358.qx 
               PNP             
          IS  800.000000E-18 
          BF  166.7          
          NF    1            
          BR    1            
          NR    1            
          CN    2.2          
           D     .52         


               X_U4.x16.shutmod 
               NPN             
          IS  100.000000E-18 
          BF   50            
          NF    1            
          BR    1            
          NR    1            
          CN    2.42         
           D     .87         


               X_U1B.x_lm358.qx                Q74             
               PNP                             NPN             
          IS  800.000000E-18                  100.000000E-18 
          BF  166.7                            49            
          NF    1                               1            
         ISE  100.000000E-18 
          BR    1                                .03         
          NR    1                               1            
         ISC  400.000000E-18 
          RB   50            
          RC   20            
         CJE    1.000000E-12 
         VJE     .9          
         MJE     .5          
         CJC  500.000000E-15 
         VJC     .8          
         CJS    3.000000E-12 
         VJS     .7          
         MJS     .33         
          TF  200.000000E-12 
          TR   10.000000E-09 
          CN    2.2                             2.42         
           D     .52                             .87         


**** 01/19/01 01:22:09 ********* PSpice 9.1 (Mar 1999) ******** ID# 0 ********

 ** circuit file for profile: 123 


 ****     MOSFET MODEL PARAMETERS


******************************************************************************




               IRFP460         
               NMOS            
       LEVEL    3            
           L    2.000000E-06 
           W    1.9          
         VTO    3.248        
          KP   20.650000E-06 
       GAMMA    0            
         PHI     .6          
      LAMBDA    0            
          RD     .2303       
          RS    2.041000E-03 
          RG    1.556        
         RDS    2.222000E+06 
          IS   96.300000E-12 
          JS    0            
          PB     .8          
        PBSW     .8          
         CBD    5.156000E-09 
          CJ    0            
        CJSW    0            
          TT  670.000000E-09 
        CGSO    1.947000E-09 
        CGDO  135.800000E-12 
        CGBO    0            
         TOX  100.000000E-09 
          XJ    0            
       UCRIT   10.000000E+03 
       DELTA    0            
         ETA    0            
      DIOMOD    1            
         VFB    0            
        LETA    0            
        WETA    0            
          U0    0            
        TEMP    0            
         VDD    0            
       XPART    0            


**** 01/19/01 01:22:09 ********* PSpice 9.1 (Mar 1999) ******** ID# 0 ********

 ** circuit file for profile: 123 


 ****     Voltage Controlled Switch MODEL PARAMETERS


******************************************************************************




               X_U4.x1.sonlo   X_U4.x1.sonhi   X_U4.x1.smod    
         RON    1               1               1            
        ROFF  100.000000E+06  100.000000E+06  100.000000E+06 
         VON    2.4             2.6             5.1          
        VOFF    2.6             2.4             5            


               X_U4.x1.sw_topen 
         RON    1            
        ROFF   10.000000E+06 
         VON     .9          
        VOFF     .1          


**** 01/19/01 01:22:09 ********* PSpice 9.1 (Mar 1999) ******** ID# 0 ********

 ** circuit file for profile: 123 


 ****     Current Controlled Switch MODEL PARAMETERS


******************************************************************************




               X_U4.sw         X_U1A.x_lm358.sw2 
         RON    1               1            
        ROFF  100.000000E+06   10.000000E+06 
         ION     .4             0            
        IOFF     .35           -1.000000E-06 


               X_U1A.x_lm358.sw1 
         RON    1            
        ROFF   10.000000E+06 
         ION   -1.000000E-06 
        IOFF    0            


               X_U1A.x_lm358.sw3 
         RON    1            
        ROFF   10.000000E+06 
         ION   -1.000000E-06 
        IOFF    0            


               X_U1A.x_lm358.sw4 
         RON    1            
        ROFF   10.000000E+06 
         ION    0            
        IOFF   -1.000000E-06 


               X_U1B.x_lm358.sw2 
         RON    1            
        ROFF   10.000000E+06 
         ION    0            
        IOFF   -1.000000E-06 


               X_U1B.x_lm358.sw1 
         RON    1            
        ROFF   10.000000E+06 
         ION   -1.000000E-06 
        IOFF    0            


               X_U1B.x_lm358.sw3 
         RON    1            
        ROFF   10.000000E+06 
         ION   -1.000000E-06 
        IOFF    0            


               X_U1B.x_lm358.sw4 
         RON    1            
        ROFF   10.000000E+06 
         ION    0            
        IOFF   -1.000000E-06 


**** 01/19/01 01:22:09 ********* PSpice 9.1 (Mar 1999) ******** ID# 0 ********

 ** circuit file for profile: 123 


 ****     Digital Input MODEL PARAMETERS


******************************************************************************




               DIN74           din74s_o1       
        FILE DSO_DTOA        DSO_DTOA        
      FORMAT    6               6            
    TIMESTEP  100.000000E-12  100.000000E-12 
         CLO                    1.000000E-12 
         CHI                    1.000000E-12 
      S0NAME 0               0               
       S0TSW    3.500000E-09  100.000000E-12 
       S0RLO    7.13             .1          
       S0RHI  389              10.000000E+03 
      S1NAME 1               1               
       S1TSW    5.500000E-09  100.000000E-12 
       S1RLO  467             200.000000E+03 
       S1RHI  200             200.000000E+03 
      S2NAME X               x               
       S2TSW    3.500000E-09  100.000000E-12 
       S2RLO   42.9            34.6          
       S2RHI  116              98.4          
      S3NAME R               z               
       S3TSW    3.500000E-09  100.000000E-12 
       S3RLO   42.9           200.000000E+03 
       S3RHI  116             200.000000E+03 
      S4NAME F               R               
       S4TSW    3.500000E-09  100.000000E-12 
       S4RLO   42.9            34.6          
       S4RHI  116              98.4          
      S5NAME Z               F               
       S5TSW    3.500000E-09  100.000000E-12 
       S5RLO  200.000000E+03   34.6          
       S5RHI  200.000000E+03   98.4          


**** 01/19/01 01:22:09 ********* PSpice 9.1 (Mar 1999) ******** ID# 0 ********

 ** circuit file for profile: 123 


 ****     Digital Output MODEL PARAMETERS


******************************************************************************




               X_U4.uvl        X_U4.x15.cmp    X_U4.x1.compmod DO74            
        FILE DSO_ATOD        DSO_ATOD        DSO_ATOD        DSO_ATOD        
      FORMAT    6               6               6               6            
     CHGONLY    1               1               1               1            
    TIMESTEP  100.000000E-12  100.000000E-12  100.000000E-12  100.000000E-12 
      S0NAME 0               0               0               X               
       S0VHI   50                                               2            
       S0VLO    7             -20.000000E+03  -15                .8          
      S1NAME 1               1               1               0               
       S1VHI    7.2            20.000000E+03    7                .8          
       S1VLO                                                   -1.5          
      S2NAME                                                 R               
       S2VHI                                                    1.4          
       S2VLO                                                     .8          
      S3NAME                                                 R               
       S3VHI                                                    2            
       S3VLO                                                    1.3          
      S4NAME                                                 X               
       S4VHI                                                    2            
       S4VLO                                                     .8          
      S5NAME                                                 1               
       S5VHI                                                    7            
       S5VLO                                                    2            
      S6NAME                                                 F               
       S6VHI                                                    2            
       S6VLO                                                    1.3          
      S7NAME                                                 F               
       S7VHI                                                    1.4          
       S7VLO                                                     .8          


**** 01/19/01 01:22:09 ********* PSpice 9.1 (Mar 1999) ******** ID# 0 ********

 ** circuit file for profile: 123 


 ****     Digital Gate MODEL PARAMETERS


******************************************************************************




               X_U4.dshutd     X_U4.delgate    d0_gate         d_00            
      TPLHMN  800.000000E-12   24.000000E-09    0               4.400000E-09 
      TPLHTY    2.000000E-09   60.000000E-09    0              11.000000E-09 
      TPLHMX    3.200000E-09   95.999990E-09    0              22.000000E-09 
      TPHLMN  800.000000E-12   24.000000E-09    0               2.800000E-09 
      TPHLTY    2.000000E-09   60.000000E-09    0               7.000000E-09 
      TPHLMX    3.200000E-09   95.999990E-09    0              15.000000E-09 


**** 01/19/01 01:22:09 ********* PSpice 9.1 (Mar 1999) ******** ID# 0 ********

 ** circuit file for profile: 123 


 ****     Digital Edge Triggered FF MODEL PARAMETERS


******************************************************************************




               d0_eff          
  TPCLKQLHMN    0            
  TPCLKQLHTY    0            
  TPCLKQLHMX    0            
  TPCLKQHLMN    0            
  TPCLKQHLTY    0            
  TPCLKQHLMX    0            
   TPPCQLHMN    0            
   TPPCQLHTY    0            
   TPPCQLHMX    0            
   TPPCQHLMN    0            
   TPPCQHLTY    0            
   TPPCQHLMX    0            
    TWCLKLMN    0            
    TWCLKLTY    0            
    TWCLKLMX    0            
    TWCLKHMN    0            
    TWCLKHTY    0            
    TWCLKHMX    0            
     TWPCLMN    0            
     TWPCLTY    0            
     TWPCLMX    0            
   TSUDCLKMN    0            
   TSUDCLKTY    0            
   TSUDCLKMX    0            
 TSUPCCLKHMN    0            
 TSUPCCLKHTY    0            
 TSUPCCLKHMX    0            
    THDCLKMN    0            
    THDCLKTY    0            
    THDCLKMX    0            
  TSUCECLKMN    0            
  TSUCECLKTY    0            
  TSUCECLKMX    0            
   THCECLKMN    0            
   THCECLKTY    0            
   THCECLKMX    0            


**** 01/19/01 01:22:09 ********* PSpice 9.1 (Mar 1999) ******** ID# 0 ********

 ** circuit file for profile: 123 


 ****     Digital Gated FF MODEL PARAMETERS


******************************************************************************




               d0_gff          
    TPDQLHMN    0            
    TPDQLHTY    0            
    TPDQLHMX    0            
    TPDQHLMN    0            
    TPDQHLTY    0            
    TPDQHLMX    0            
    TPGQLHMN    0            
    TPGQLHTY    0            
    TPGQLHMX    0            
    TPGQHLMN    0            
    TPGQHLTY    0            
    TPGQHLMX    0            
   TPPCQLHMN    0            
   TPPCQLHTY    0            
   TPPCQLHMX    0            
   TPPCQHLMN    0            
   TPPCQHLTY    0            
   TPPCQHLMX    0            
      TWGHMN    0            
      TWGHTY    0            
      TWGHMX    0            
     TWPCLMN    0            
     TWPCLTY    0            
     TWPCLMX    0            
     TSUDGMN    0            
     TSUDGTY    0            
     TSUDGMX    0            
   TSUPCGHMN    0            
   TSUPCGHTY    0            
   TSUPCGHMX    0            
      THDGMN    0            
      THDGTY    0            
      THDGMX    0            


**** 01/19/01 01:22:09 ********* PSpice 9.1 (Mar 1999) ******** ID# 0 ********

 ** circuit file for profile: 123 


 ****     Digital IO  MODEL PARAMETERS


******************************************************************************




               io_std          io_stm          io_dft          io_pwm_oc       
        DRVL  104               0                              60.6          
        DRVH   96.4             0                               1.000000E+06 
       AtoD1 AtoD_STD                        AtoD_STD        atod_s          
       AtoD2 AtoD_STD_NX                     AtoD_STD_NX     atod_s_nx       
       AtoD3 AtoD_STD                        AtoD_STD        atod_s_e        
       AtoD4 AtoD_STD_NX                     AtoD_STD_NX     atod_s_nxe      
       DtoA1 DtoA_STD        DtoA_STM        DtoA_STD        dtoa_s_o1       
       DtoA2 DtoA_STD        DtoA_STM        DtoA_STD        dtoa_s_o1       
       DtoA3 DtoA_STD        DtoA_STM        DtoA_STD        dtoa_s_o1       
       DtoA4 DtoA_STD        DtoA_STM        DtoA_STD        dtoa_s_o1       
      TSWHL1    1.511000E-09                                                 
      TSWHL2    1.487000E-09                                                 
      TSWHL3    1.511000E-09                                                 
      TSWHL4    1.487000E-09                                                 
      TSWLH1    3.517000E-09                                                 
      TSWLH2    3.564000E-09                                                 
      TSWLH3    3.517000E-09                                                 
      TSWLH4    3.564000E-09                                                 
       TPWRT  100.000000E+03  100.000000E+03  100.000000E+03  100.000000E+03 


               io_s_oc         
        DRVL   60.6          
        DRVH    1.000000E+06 
       AtoD1 AtoD_S          
       AtoD2 AtoD_S_NX       
       AtoD3 AtoD_S          
       AtoD4 AtoD_S_NX       
       DtoA1 DtoA_S_OC       
       DtoA2 DtoA_S_OC       
       DtoA3 DtoA_S_OC       
       DtoA4 DtoA_S_OC       
      TSWHL1    1.305000E-09 
      TSWHL2    1.306000E-09 
      TSWHL3    1.305000E-09 
      TSWHL4    1.306000E-09 
      TSWLH1  483.000000E-12 
      TSWLH2  471.000000E-12 
      TSWLH3  483.000000E-12 
      TSWLH4  471.000000E-12 
       TPWRT  100.000000E+03 


**** 01/19/01 01:22:09 ********* PSpice 9.1 (Mar 1999) ******** ID# 0 ********

 ** circuit file for profile: 123 


 ****     INITIAL TRANSIENT SOLUTION       TEMPERATURE =   27.000 DEG C


******************************************************************************



 NODE   VOLTAGE     NODE   VOLTAGE     NODE   VOLTAGE     NODE   VOLTAGE


(   VR)    5.0907  (  AC1) 2.669E-18  (  AC2) 2.669E-18  ( +15V)   12.0000      

(DCOUT) 29.90E-09  (N00073) 3.414E-18 (N00081) 6.828E-18 (N00085) 3.398E-18     

(N00304) 3.398E-18 (N00345)    0.0000 (N00416)     .3989 (N00419)     .3989     

(N00442)     .0181 (N00451)     .0181 (N00713) 29.90E-09 (N00731) 250.9E-12     

(N01401)    2.5435 (N01498)    2.5434 (N01504)     .0053 (N01523)     .0018     

(N02449) 67.01E-06 (N02456)    2.3750 (N02459)    1.1044 (N02465)    -.1663     

(N06568) 6.828E-18 (N14454)    0.0000 (N14590)     .9000 (N14714)    2.5451     

(N14733)    2.5465 (N25131) 3.414E-18 (N25137)    0.0000 (N25143)    0.0000     

($G_DGND)    0.0000                   ($G_DPWR)    5.0000                       

(N014830) 47.21E-06                   (N021270)     .0093                       

(N021291)    1.8347                   (N021311)    1.2943                       

(N035621) 3.398E-18                   (N036951)    0.0000                       

(N144490)     .9000                   (X_U4.26)    5.1000                       

(X_U4.60)    2.5466                   (N1624810)    3.6960                      

(N1624811) 50.03E-06                  (X_U4.115)   12.0000                      

(X_U4.731)     .1189                  (X_U4.732)     .1189                      

(X_U4.733)     .7914                  (X_U4.734)     .7914                      

(X_U4.735)   11.0000                  (X_U4.7111)     .1189                     

(X_U4.7112)     .1189                 (X_U4.7113)    4.9650                     

(X_U4.7114)    4.9650                 (X_U4.DGND)    0.0000                     

(X_U4.DPWR)    5.0000                 (X_U4.x1.3)    7.8481                     

(X_U4.x1.4) 50.05E-06                 (X_U4.x1.8)    1.0000                     

(X_U4.x16.3)     .0900                (X_U4.x16.6)     .0900                    

(X_U4.x4.10)    4.9000                (X_U4.x4.20)     .7000                    

(X$0_AtoD1.1)     .0915               (X$0_AtoD1.2)     .0457                   

(X$0_AtoD1.3)     .8277               (X_U4.x1.x1.5)   25.4660                  

(X_U4.x1.x1.10)    4.3000             (X_U4.x1.x1.20)     .7000                 

(X_U4.x15.offs) 100.0E-06             (X_U4.x15.ramp1)     .9000                

(X_U1A.x_lm358.6)     .0014           (X_U1A.x_lm358.7)     .0028               

(X_U1A.x_lm358.8)     .0028           (X_U1A.x_lm358.9)    0.0000               

(X_U1A.x_lm358.a) 51.09E-06           (X_U1A.x_lm358.b) 49.89E-06               

(X_U1B.x_lm358.6)    1.5082           (X_U1B.x_lm358.7)   -2.1968               

(X_U1B.x_lm358.8)   -2.1968           (X_U1B.x_lm358.9)    0.0000               

(X_U1B.x_lm358.a)     .0406           (X_U1B.x_lm358.b)     .0406               

(X_U1A.x_lm358.10)     .6098          (X_U1A.x_lm358.11)     .0400              

(X_U1A.x_lm358.12)     .0417          (X_U1A.x_lm358.13)     .5958              

(X_U1A.x_lm358.14)     .5952          (X_U1A.x_lm358.53)   10.5000              

(X_U1A.x_lm358.54)     .6500          (X_U1A.x_lm358.90)    -.0499              

(X_U1A.x_lm358.91)   40.0000          (X_U1A.x_lm358.92)  -40.0000              

(X_U1A.x_lm358.99)    6.0000          (X_U1B.x_lm358.10)     .6504              

(X_U1B.x_lm358.11) 9.313E-09          (X_U1B.x_lm358.12)     .0817              

(X_U1B.x_lm358.13)     .6504          (X_U1B.x_lm358.14)     .6218              

(X_U1B.x_lm358.53)   10.5000          (X_U1B.x_lm358.54)     .6500              

(X_U1B.x_lm358.90)  -40.6100          (X_U1B.x_lm358.91)   40.0000              

(X_U1B.x_lm358.92)  -40.0000          (X_U1B.x_lm358.99)    6.0000              

(X_U4.x15.pos_neg) 100.0E-06          



 DGTL NODE : STATE  DGTL NODE : STATE  DGTL NODE : STATE  DGTL NODE : STATE


(X_U4.2222) : 1    (N1624810$DtoA) : 1                   (X_U4.dclk) : 1        

(X_U4.7112$DtoA) : 0                  (X_U4.100) : 0     ( X_U4.78) : 0         

(X_U4.2220) : 0    (X_U4.x16.3$DtoA) : 0                 (X_U4.1110) : 1        

(X_U4.7113$DtoA) : Z                  ( X_U4.20) : 0     (  0$AtoD) : 0         

( X_U4.57) : 0     (X_U4.101) : 0     (X_U4.7114$DtoA) : Z                      

( X_U4.21) : 1     ( X_U4.22) : 1     ( X_U4.77) : 1     (X_U4.1010) : 0        

(X_U4.7111$DtoA) : 0                  (X_U4.713) : 0     ( X_U4.51) : 1     




    VOLTAGE SOURCE CURRENTS
    NAME         CURRENT

    V_V1        -1.668E-02
    V_V2         0.000E+00
    X_U4.v_clkset  -1.800E-12
    X_U4.v16    -9.303E-03
    X_U4.vdrop   4.386E-11
    X_U1A.x_lm358.vb   1.383E-08
    X_U1A.x_lm358.vc   1.050E-11
    X_U1A.x_lm358.ve  -5.343E-05
    X_U1A.x_lm358.vlim  -4.989E-05
    X_U1A.x_lm358.vlp  -4.005E-11
    X_U1A.x_lm358.vln  -3.995E-11
    X_U4.xdigpwr.VDPWR  -2.817E-02
    X_U4.xdigpwr.VDGND   5.042E-03
    X_U4.x15.vser   0.000E+00
    X_U4.x15.vofset  -1.000E-04
    X_U4.x4.vt  -2.353E-12
    X_U4.x4.vb   1.847E-12
    X_U4.x1.v1  -1.000E-12
    X_U1B.x_lm358.vb   1.508E-05
    X_U1B.x_lm358.vc   1.067E-11
    X_U1B.x_lm358.ve  -4.060E-02
    X_U1B.x_lm358.vlim  -4.061E-02
    X_U1B.x_lm358.vlp  -8.061E-11
    X_U1B.x_lm358.vln   1.395E-05
    X_U4.x1.x1.vt   1.762E-01
    X_U4.x1.x1.vb   7.248E-12
    X$DIGIFPWR.VDPWR  -5.000E-06
    X$DIGIFPWR.VDGND  -5.000E-06

    TOTAL POWER DISSIPATION  -3.43E-01  WATTS


ERROR -- Convergence problem in transient analysis at Time =  85.47E-06
         Time step =  45.99E-18, minimum allowable step size =  200.0E-18

  These devices failed to converge:
    X_U1A.x_lm358.dc 



  Last node voltages tried were:

 NODE   VOLTAGE     NODE   VOLTAGE     NODE   VOLTAGE     NODE   VOLTAGE


(   VR)    5.0874  (  AC1)   -1.2945  (  AC2)    7.0285  ( +15V)   12.0000      

(DCOUT) 408.3E-09  (N00073)    1.3033 (N00081)    2.6064 (N00085)    1.2887     

(N00304)    1.2212 (N00345)     .0702 (N00416)     .9435 (N00419)    2.0402     

(N00442)     .1182 (N00451)    2.8302 (N00713)    -.1790 (N00731) 440.0E-12     

(N01401)    2.5418 (N01498)    2.5417 (N01504)     .0053 (N01523)     .0018     

(N02449) 67.02E-06 (N02456)    2.3739 (N02459)    1.1038 (N02465)    -.1663     

(N06568)    5.7340 (N14454)    0.0000 (N14590)    1.5918 (N14714)    2.5434     

(N14733)    2.5449 (N25131)    1.2625 (N25137)     .0408 (N25143)    -.0405     

($G_DGND)    0.0000                   ($G_DPWR)    5.0000                       

(N014830) 47.21E-06                   (N021270)     .0093                       

(N021291)    1.8336                   (N021311)    1.2932                       

(N035621)    1.5821                   (N036951)    -.2935                       

(N144490)    1.5918                   (X_U4.26)    5.1000                       

(X_U4.60)    2.5450                   (N1624810)     .1247                      

(N1624811)    4.2542                  (X_U4.115)   12.0000                      

(X_U4.731)    3.7914                  (X_U4.732)     .1186                      

(X_U4.733)    -.0045                  (X_U4.734)     .8125                      

(X_U4.735)   11.0000                  (X_U4.7111)   11.9090                     

(X_U4.7112)     .1189                 (X_U4.7113)     .0496                     

(X_U4.7114)    4.9651                 (X_U4.DGND)    0.0000                     

(X_U4.DPWR)    5.0000                 (X_U4.x1.3)   -2.3788                     

(X_U4.x1.4)    2.5450                 (X_U4.x1.8)    0.0000                     

(X_U4.x16.3)     .0900                (X_U4.x16.6)     .0900                    

(X_U4.x4.10)    4.9000                (X_U4.x4.20)     .7000                    

(X$0_AtoD1.1)     .0915               (X$0_AtoD1.2)     .0457                   

(X$0_AtoD1.3)     .8277               (X_U4.x1.x1.5)  -17.0930                  

(X_U4.x1.x1.10)    4.3000             (X_U4.x1.x1.20)     .7000                 

(X_U4.x15.offs) 100.0E-06             (X_U4.x15.ramp1)    1.5918                

(X_U1A.x_lm358.6)     .0014           (X_U1A.x_lm358.7)     .0028               

(X_U1A.x_lm358.8)     .0028           (X_U1A.x_lm358.9)    0.0000               

(X_U1A.x_lm358.a) 51.08E-06           (X_U1A.x_lm358.b) 49.88E-06               

(X_U1B.x_lm358.6)    1.5082           (X_U1B.x_lm358.7)   -2.1968               

(X_U1B.x_lm358.8)   -2.1968           (X_U1B.x_lm358.9)    0.0000               

(X_U1B.x_lm358.a)     .0406           (X_U1B.x_lm358.b)     .0406               

(X_U1A.x_lm358.10)     .6098          (X_U1A.x_lm358.11)     .0400              

(X_U1A.x_lm358.12)     .0417          (X_U1A.x_lm358.13)     .5958              

(X_U1A.x_lm358.14)     .5952          (X_U1A.x_lm358.53)   10.5000              

(X_U1A.x_lm358.54)     .6500          (X_U1A.x_lm358.90)    -.0499              

(X_U1A.x_lm358.91)   40.0000          (X_U1A.x_lm358.92)  -40.0000              

(X_U1A.x_lm358.99)    6.0000          (X_U1B.x_lm358.10)     .6504              

(X_U1B.x_lm358.11) 9.273E-09          (X_U1B.x_lm358.12)     .0817              

(X_U1B.x_lm358.13)     .6504          (X_U1B.x_lm358.14)     .6218              

(X_U1B.x_lm358.53)   10.5000          (X_U1B.x_lm358.54)     .6500              

(X_U1B.x_lm358.90)  -40.6100          (X_U1B.x_lm358.91)   40.0000              

(X_U1B.x_lm358.92)  -40.0000          (X_U1B.x_lm358.99)    6.0000              

(X_U4.x15.pos_neg)   -1.2644          



 DGTL NODE : STATE  DGTL NODE : STATE  DGTL NODE : STATE  DGTL NODE : STATE


(X_U4.2222) : 0    (N1624810$DtoA) : 0                   (X_U4.dclk) : 0        

(X_U4.7112$DtoA) : 0                  (X_U4.100) : 1     ( X_U4.78) : 1         

(X_U4.2220) : 1    (X_U4.x16.3$DtoA) : 0                 (X_U4.1110) : 1        

(X_U4.7113$DtoA) : 0                  ( X_U4.20) : 0     (  0$AtoD) : 0         

( X_U4.57) : 1     (X_U4.101) : 0     (X_U4.7114$DtoA) : Z                      

( X_U4.21) : 1     ( X_U4.22) : 0     ( X_U4.77) : 0     (X_U4.1010) : 0        

(X_U4.7111$DtoA) : Z                  (X_U4.713) : 0     ( X_U4.51) : 1     



          JOB CONCLUDED

          TOTAL JOB TIME          468.51
